Circuit: * G:\My Drive\21 UTN\01 - Aplicada 3\jupyterEAIII\Adaptadores\ClaseSimpleSintonizado\ejemplo_con_2N3819\autopolarizacion_2N3819.asc

.step r=0.001
.OP point found by inspection.
.step r=100
.step r=300
.step r=500
.step r=1000

Date: Mon May 17 21:18:40 2021
Total elapsed time: 0.336 seconds.

tnom = 27
temp = 27
method = trap
totiter = 241
traniter = 0
tranpoints = 0
accept = 0
rejected = 0
matrix size = 5
fillins = 0
solver = Normal
Matrix Compiler1:      10 opcodes  0.1/[0.0]/0.0
Matrix Compiler2: off  [0.0]/0.1/0.0

