Circuit: * G:\My Drive\21 UTN\01 - Aplicada 3\jupyterEAIII\Adaptadores\ClaseSimpleSintonizado\ejemplo_con_2N3819\autopolarizacion2_2N3819.asc

Direct Newton iteration for .op point succeeded.

Date: Mon May 17 21:12:11 2021
Total elapsed time: 0.259 seconds.

tnom = 27
temp = 27
method = trap
totiter = 7
traniter = 0
tranpoints = 0
accept = 0
rejected = 0
matrix size = 9
fillins = 0
solver = Normal
Matrix Compiler1:      19 opcodes
Matrix Compiler2: 593 bytes object code size
