Circuit: * G:\My Drive\21 UTN\01 - Aplicada 3\jupyterEAIII\Adaptadores\Ej1.1_Adap2.asc


Date: Sun May 09 12:31:42 2021
Total elapsed time: 0.063 seconds.

tnom = 27
temp = 27
method = trap
totiter = 0
traniter = 0
tranpoints = 0
accept = 0
rejected = 0
matrix size = 4
fillins = 0
solver = Normal

